/*--------------------------------*- C++ -*----------------------------------*\
| =========                 |                                                 |
| \\      /  F ield         | OpenFOAM: The Open Source CFD Toolbox           |
|  \\    /   O peration     | Version:  2412                                  |
|   \\  /    A nd           | Website:  www.openfoam.com                      |
|    \\/     M anipulation  |                                                 |
\*---------------------------------------------------------------------------*/
FoamFile
{
    version     2.0;
    format      ascii;
    arch        "LSB;label=32;scalar=64";
    class       polyBoundaryMesh;
    location    "constant/polyMesh";
    object      boundary;
}
// * * * * * * * * * * * * * * * * * * * * * * * * * * * * * * * * * * * * * //

8
(
    FrontBack
    {
        type            empty;
        inGroups        1(empty);
        nFaces          136;
        startFace       88;
    }
    Top
    {
        type            wall;
        inGroups        1(wall);
        nFaces          2;
        startFace       224;
    }
    In
    {
        type            patch;
        nFaces          4;
        startFace       226;
    }
    Bottom
    {
        type            wall;
        inGroups        1(wall);
        nFaces          0;
        startFace       230;
    }
    Out
    {
        type            patch;
        nFaces          0;
        startFace       230;
    }
    circle
    {
        type            wall;
        inGroups        1(wall);
        nFaces          0;
        startFace       230;
    }
    procBoundary8to4
    {
        type            processor;
        inGroups        1(processor);
        nFaces          11;
        startFace       230;
        matchTolerance  0.0001;
        transform       unknown;
        myProcNo        8;
        neighbProcNo    4;
    }
    procBoundary8to9
    {
        type            processor;
        inGroups        1(processor);
        nFaces          11;
        startFace       241;
        matchTolerance  0.0001;
        transform       unknown;
        myProcNo        8;
        neighbProcNo    9;
    }
)

// ************************************************************************* //
