/*--------------------------------*- C++ -*----------------------------------*\
| =========                 |                                                 |
| \\      /  F ield         | OpenFOAM: The Open Source CFD Toolbox           |
|  \\    /   O peration     | Version:  2412                                  |
|   \\  /    A nd           | Website:  www.openfoam.com                      |
|    \\/     M anipulation  |                                                 |
\*---------------------------------------------------------------------------*/
FoamFile
{
    version     2.0;
    format      ascii;
    arch        "LSB;label=32;scalar=64";
    class       polyBoundaryMesh;
    location    "constant/polyMesh";
    object      boundary;
}
// * * * * * * * * * * * * * * * * * * * * * * * * * * * * * * * * * * * * * //

9
(
    FrontBack
    {
        type            empty;
        inGroups        1(empty);
        nFaces          134;
        startFace       84;
    }
    Top
    {
        type            wall;
        inGroups        1(wall);
        nFaces          0;
        startFace       218;
    }
    In
    {
        type            patch;
        nFaces          0;
        startFace       218;
    }
    Bottom
    {
        type            wall;
        inGroups        1(wall);
        nFaces          0;
        startFace       218;
    }
    Out
    {
        type            patch;
        nFaces          0;
        startFace       218;
    }
    circle
    {
        type            wall;
        inGroups        1(wall);
        nFaces          12;
        startFace       218;
    }
    procBoundary5to1
    {
        type            processor;
        inGroups        1(processor);
        nFaces          9;
        startFace       230;
        matchTolerance  0.0001;
        transform       unknown;
        myProcNo        5;
        neighbProcNo    1;
    }
    procBoundary5to6
    {
        type            processor;
        inGroups        1(processor);
        nFaces          4;
        startFace       239;
        matchTolerance  0.0001;
        transform       unknown;
        myProcNo        5;
        neighbProcNo    6;
    }
    procBoundary5to9
    {
        type            processor;
        inGroups        1(processor);
        nFaces          8;
        startFace       243;
        matchTolerance  0.0001;
        transform       unknown;
        myProcNo        5;
        neighbProcNo    9;
    }
)

// ************************************************************************* //
