/*--------------------------------*- C++ -*----------------------------------*\
| =========                 |                                                 |
| \\      /  F ield         | OpenFOAM: The Open Source CFD Toolbox           |
|  \\    /   O peration     | Version:  2412                                  |
|   \\  /    A nd           | Website:  www.openfoam.com                      |
|    \\/     M anipulation  |                                                 |
\*---------------------------------------------------------------------------*/
FoamFile
{
    version     2.0;
    format      ascii;
    arch        "LSB;label=32;scalar=64";
    class       polyBoundaryMesh;
    location    "constant/polyMesh";
    object      boundary;
}
// * * * * * * * * * * * * * * * * * * * * * * * * * * * * * * * * * * * * * //

7
(
    walls
    {
        type            wall;
        inGroups        1(wall);
        nFaces          8;
        startFace       480;
    }
    cylinder
    {
        type            wall;
        inGroups        1(wall);
        nFaces          16;
        startFace       488;
    }
    outlet
    {
        type            patch;
        nFaces          0;
        startFace       504;
    }
    inlet
    {
        type            patch;
        nFaces          8;
        startFace       504;
    }
    frontAndBack
    {
        type            empty;
        inGroups        1(empty);
        nFaces          512;
        startFace       512;
    }
    procBoundary2to0
    {
        type            processor;
        inGroups        1(processor);
        nFaces          16;
        startFace       1024;
        matchTolerance  0.0001;
        transform       unknown;
        myProcNo        2;
        neighbProcNo    0;
    }
    procBoundary2to3
    {
        type            processor;
        inGroups        1(processor);
        nFaces          16;
        startFace       1040;
        matchTolerance  0.0001;
        transform       unknown;
        myProcNo        2;
        neighbProcNo    3;
    }
)

// ************************************************************************* //
