/*--------------------------------*- C++ -*----------------------------------*\\
| =========                 |                                                 |
| \\\\      /  F ield         | OpenFOAM: The Open Source CFD Toolbox           |
|  \\\\    /   O peration     | Version:  2412                                  |
|   \\\\  /    A nd           |                                                 |
|    \\\\/     M anipulation  |                                                 |
\\*---------------------------------------------------------------------------*/

FoamFile
{
    version     2.0;
    format      ascii;
    class       volVectorField;
    location    "0";
    object      U;
}

dimensions      [0 1 -1 0 0 0 0];

internalField   uniform (1 0 0);

boundaryField
{
    In
    {
        type            fixedValue;
        value           uniform (1 0 0);
    }

    Out
    {
        type            zeroGradient;
    }

    Top
    {
        type            noSlip;
    }

    Bottom
    {
        type            noSlip;
    }

    circle
    {
        type            noSlip;
    }

    FrontBack
    {
        type            empty;
    }
}
