/*--------------------------------*- C++ -*----------------------------------*\
| =========                 |                                                 |
| \\      /  F ield         | OpenFOAM: The Open Source CFD Toolbox           |
|  \\    /   O peration     | Version:  2412                                  |
|   \\  /    A nd           | Website:  www.openfoam.com                      |
|    \\/     M anipulation  |                                                 |
\*---------------------------------------------------------------------------*/
FoamFile
{
    version     2.0;
    format      ascii;
    arch        "LSB;label=32;scalar=64";
    class       polyBoundaryMesh;
    location    "constant/polyMesh";
    object      boundary;
}
// * * * * * * * * * * * * * * * * * * * * * * * * * * * * * * * * * * * * * //

8
(
    FrontBack
    {
        type            empty;
        inGroups        1(empty);
        nFaces          134;
        startFace       89;
    }
    Top
    {
        type            wall;
        inGroups        1(wall);
        nFaces          0;
        startFace       223;
    }
    In
    {
        type            patch;
        nFaces          0;
        startFace       223;
    }
    Bottom
    {
        type            wall;
        inGroups        1(wall);
        nFaces          8;
        startFace       223;
    }
    Out
    {
        type            patch;
        nFaces          3;
        startFace       231;
    }
    circle
    {
        type            wall;
        inGroups        1(wall);
        nFaces          0;
        startFace       234;
    }
    procBoundary3to2
    {
        type            processor;
        inGroups        1(processor);
        nFaces          4;
        startFace       234;
        matchTolerance  0.0001;
        transform       unknown;
        myProcNo        3;
        neighbProcNo    2;
    }
    procBoundary3to7
    {
        type            processor;
        inGroups        1(processor);
        nFaces          8;
        startFace       238;
        matchTolerance  0.0001;
        transform       unknown;
        myProcNo        3;
        neighbProcNo    7;
    }
)

// ************************************************************************* //
