/*--------------------------------*- C++ -*----------------------------------*\
| =========                 |                                                 |
| \\      /  F ield         | OpenFOAM: The Open Source CFD Toolbox           |
|  \\    /   O peration     | Version:  v2412                                 |
|   \\  /    A nd           | Website:  www.openfoam.com                      |
|    \\/     M anipulation  |                                                 |
\*---------------------------------------------------------------------------*/
FoamFile
{
    version     2.0;
    format      ascii;
    class       volScalarField;
    location    "0";
    object      k;
}
// * * * * * * * * * * * * * * * * * * * * * * * * * * * * * * * * * * * * * //

#include        "include/initialConditions"

dimensions      [0 2 -2 0 0 0 0];

internalField   uniform $turbulentKE;

boundaryField
{
   cylinder
{
    type            kqRWallFunction;
    value           uniform 0.01;
}
inlet
{
    type            fixedValue;
    value           uniform 0.01;
}
outlet
{
    type            zeroGradient;
}
top
{
    type            zeroGradient;
}
bottom
{
    type            zeroGradient;
}
front_back
{
    type            empty;
}

}

// ************************************************************************* //

