/*--------------------------------*- C++ -*----------------------------------*\
| =========                 |                                                 |
| \\      /  F ield         | OpenFOAM: The Open Source CFD Toolbox           |
|  \\    /   O peration     | Version:  2412                                  |
|   \\  /    A nd           | Website:  www.openfoam.com                      |
|    \\/     M anipulation  |                                                 |
\*---------------------------------------------------------------------------*/
FoamFile
{
    version     2.0;
    format      ascii;
    arch        "LSB;label=32;scalar=64";
    class       polyBoundaryMesh;
    location    "constant/polyMesh";
    object      boundary;
}
// * * * * * * * * * * * * * * * * * * * * * * * * * * * * * * * * * * * * * //

10
(
    FrontBack
    {
        type            empty;
        inGroups        1(empty);
        nFaces          134;
        startFace       87;
    }
    Top
    {
        type            wall;
        inGroups        1(wall);
        nFaces          0;
        startFace       221;
    }
    In
    {
        type            patch;
        nFaces          0;
        startFace       221;
    }
    Bottom
    {
        type            wall;
        inGroups        1(wall);
        nFaces          4;
        startFace       221;
    }
    Out
    {
        type            patch;
        nFaces          0;
        startFace       225;
    }
    circle
    {
        type            wall;
        inGroups        1(wall);
        nFaces          0;
        startFace       225;
    }
    procBoundary2to1
    {
        type            processor;
        inGroups        1(processor);
        nFaces          8;
        startFace       225;
        matchTolerance  0.0001;
        transform       unknown;
        myProcNo        2;
        neighbProcNo    1;
    }
    procBoundary2to3
    {
        type            processor;
        inGroups        1(processor);
        nFaces          4;
        startFace       233;
        matchTolerance  0.0001;
        transform       unknown;
        myProcNo        2;
        neighbProcNo    3;
    }
    procBoundary2to6
    {
        type            processor;
        inGroups        1(processor);
        nFaces          10;
        startFace       237;
        matchTolerance  0.0001;
        transform       unknown;
        myProcNo        2;
        neighbProcNo    6;
    }
    procBoundary2to7
    {
        type            processor;
        inGroups        1(processor);
        nFaces          1;
        startFace       247;
        matchTolerance  0.0001;
        transform       unknown;
        myProcNo        2;
        neighbProcNo    7;
    }
)

// ************************************************************************* //
