/*--------------------------------*- C++ -*----------------------------------*\
| =========                 |                                                 |
| \\      /  F ield         | OpenFOAM: The Open Source CFD Toolbox           |
|  \\    /   O peration     | Version:  2412                                  |
|   \\  /    A nd           | Website:  www.openfoam.com                      |
|    \\/     M anipulation  |                                                 |
\*---------------------------------------------------------------------------*/
FoamFile
{
    version     2.0;
    format      ascii;
    arch        "LSB;label=32;scalar=64";
    class       polyBoundaryMesh;
    location    "constant/polyMesh";
    object      boundary;
}
// * * * * * * * * * * * * * * * * * * * * * * * * * * * * * * * * * * * * * //

10
(
    FrontBack
    {
        type            empty;
        inGroups        1(empty);
        nFaces          134;
        startFace       84;
    }
    Top
    {
        type            wall;
        inGroups        1(wall);
        nFaces          0;
        startFace       218;
    }
    In
    {
        type            patch;
        nFaces          0;
        startFace       218;
    }
    Bottom
    {
        type            wall;
        inGroups        1(wall);
        nFaces          1;
        startFace       218;
    }
    Out
    {
        type            patch;
        nFaces          0;
        startFace       219;
    }
    circle
    {
        type            wall;
        inGroups        1(wall);
        nFaces          0;
        startFace       219;
    }
    procBoundary1to0
    {
        type            processor;
        inGroups        1(processor);
        nFaces          12;
        startFace       219;
        matchTolerance  0.0001;
        transform       unknown;
        myProcNo        1;
        neighbProcNo    0;
    }
    procBoundary1to2
    {
        type            processor;
        inGroups        1(processor);
        nFaces          8;
        startFace       231;
        matchTolerance  0.0001;
        transform       unknown;
        myProcNo        1;
        neighbProcNo    2;
    }
    procBoundary1to5
    {
        type            processor;
        inGroups        1(processor);
        nFaces          9;
        startFace       239;
        matchTolerance  0.0001;
        transform       unknown;
        myProcNo        1;
        neighbProcNo    5;
    }
    procBoundary1to6
    {
        type            processor;
        inGroups        1(processor);
        nFaces          3;
        startFace       248;
        matchTolerance  0.0001;
        transform       unknown;
        myProcNo        1;
        neighbProcNo    6;
    }
)

// ************************************************************************* //
